      26
 i =      182, E =       -79.8925583520
  C        -1.6123541546        3.6757252975        1.3844126815
  C        -1.7437877085        2.5097884719        0.7413207813
  H        -2.1615867792        4.5644207403        1.0770650794
  H        -0.9451196460        3.7832463350        2.2374461125
  C        -2.6467299229       -0.6496520047       -0.5229373392
  C        -2.6100998319        2.3387181773       -0.4681390837
  C        -3.6053394035        0.1315595746        0.3155094080
  C        -1.4347644837       -1.0387774717       -0.0993137274
  N        -3.8946809949        1.5445040478       -0.2331971950
  H        -2.9342792929        3.3091413607       -0.8617017294
  H        -4.6193854761       -0.3291746270        0.3749230637
  H        -0.7730469087       -1.6457680855       -0.7152207903
  H        -1.0510115668       -0.7773956830        0.8859422321
  C        -4.7931981628        2.2436623299        0.7547646954
  C        -4.6393623104        1.4322796829       -1.5400978764
  H        -5.7101337595        1.6196502114        0.8381765963
  H        -5.0265240405        3.2377069990        0.3585567605
  H        -4.2620116254        2.3370280137        1.7058886536
  H        -5.5708305620        0.8619984195       -1.3257928418
  H        -3.9992093870        0.9247853553       -2.2673070610
  H        -4.8643886833        2.4457167844       -1.8881355763
  H        -1.1689453548        1.6413886542        1.0587342535
  H        -2.9913848848       -0.9562258775       -1.5098230476
 Cl        -6.9942060906       -0.1370368340        0.1438309204
  H        -2.0685075213        1.7983544118       -1.2563636341
  H        -3.2123203684        0.2785645599        1.3271854356
